<?xml version="1.0" encoding="UTF-8"?>

<!-- generated on 2023-08-26 18:28:15 by Eclipse SUMO netedit Version 1.18.0
<configuration xmlns:xsi="http://www.w3.org/2001/XMLSchema-instance" xsi:noNamespaceSchemaLocation="http://sumo.dlr.de/xsd/neteditConfiguration.xsd">

    <input>
        <sumocfg-file value="E:\Capstone\Simulation\intersection.sumocfg"/>
        <sumo-net-file value="E:\Capstone\Simulation\net.net.xml"/>
    </input>

    <output>
        <output-file value="E:\Capstone\Simulation\net.net.xml"/>
    </output>

    <processing>
        <geometry.min-radius.fix.railways value="false"/>
        <geometry.max-grade.fix value="false"/>
        <offset.disable-normalization value="true"/>
        <lefthand value="0"/>
    </processing>

    <junctions>
        <no-turnarounds value="true"/>
        <junctions.corner-detail value="0"/>
        <junctions.limit-turn-speed value="-1.00"/>
        <rectangular-lane-cut value="0"/>
    </junctions>

    <pedestrian>
        <walkingareas value="0"/>
    </pedestrian>

</configuration>
-->

<net version="1.16" xmlns:xsi="http://www.w3.org/2001/XMLSchema-instance" xsi:noNamespaceSchemaLocation="http://sumo.dlr.de/xsd/net_file.xsd">

    <location netOffset="500.00,500.00" convBoundary="0.00,0.00,1000.00,1000.00" origBoundary="-500.00,-500.00,500.00,500.00" projParameter="!"/>

    <edge id=":0_0" function="internal">
        <lane id=":0_0_0" index="0" speed="15.28" length="14.19" shape="498.40,510.40 497.85,506.55 496.20,503.80 493.45,502.15 489.60,501.60"/>
    </edge>
    <edge id=":0_1" function="internal">
        <lane id=":0_1_0" index="0" speed="15.28" length="20.80" shape="498.40,510.40 498.40,489.60"/>
    </edge>
    <edge id=":0_2" function="internal">
        <lane id=":0_2_0" index="0" speed="15.28" length="5.01" shape="498.40,510.40 499.11,505.44"/>
    </edge>
    <edge id=":0_3" function="internal">
        <lane id=":0_3_0" index="0" speed="15.28" length="1.44" shape="498.40,510.40 499.20,509.20"/>
    </edge>
    <edge id=":0_16" function="internal">
        <lane id=":0_16_0" index="0" speed="15.28" length="14.34" shape="499.11,505.44 499.15,505.15 501.40,501.40 505.15,499.15 510.40,498.40"/>
    </edge>
    <edge id=":0_17" function="internal">
        <lane id=":0_17_0" index="0" speed="15.28" length="3.23" shape="499.20,509.20 500.00,508.80 500.80,509.20 501.60,510.40"/>
    </edge>
    <edge id=":0_4" function="internal">
        <lane id=":0_4_0" index="0" speed="15.28" length="14.19" shape="510.40,501.60 506.55,502.15 503.80,503.80 502.15,506.55 501.60,510.40"/>
    </edge>
    <edge id=":0_5" function="internal">
        <lane id=":0_5_0" index="0" speed="15.28" length="20.80" shape="510.40,501.60 489.60,501.60"/>
    </edge>
    <edge id=":0_6" function="internal">
        <lane id=":0_6_0" index="0" speed="15.28" length="19.35" shape="510.40,501.60 505.15,500.85 501.40,498.60 499.15,494.85 498.40,489.60"/>
    </edge>
    <edge id=":0_7" function="internal">
        <lane id=":0_7_0" index="0" speed="15.28" length="4.67" shape="510.40,501.60 509.20,500.80 508.80,500.00 509.20,499.20 510.40,498.40"/>
    </edge>
    <edge id=":0_8" function="internal">
        <lane id=":0_8_0" index="0" speed="15.28" length="14.19" shape="501.60,489.60 502.15,493.45 503.80,496.20 506.55,497.85 510.40,498.40"/>
    </edge>
    <edge id=":0_9" function="internal">
        <lane id=":0_9_0" index="0" speed="15.28" length="20.80" shape="501.60,489.60 501.60,510.40"/>
    </edge>
    <edge id=":0_10" function="internal">
        <lane id=":0_10_0" index="0" speed="15.28" length="5.01" shape="501.60,489.60 500.89,494.56"/>
    </edge>
    <edge id=":0_11" function="internal">
        <lane id=":0_11_0" index="0" speed="15.28" length="1.44" shape="501.60,489.60 500.80,490.80"/>
    </edge>
    <edge id=":0_18" function="internal">
        <lane id=":0_18_0" index="0" speed="15.28" length="14.34" shape="500.89,494.56 500.85,494.85 498.60,498.60 494.85,500.85 489.60,501.60"/>
    </edge>
    <edge id=":0_19" function="internal">
        <lane id=":0_19_0" index="0" speed="15.28" length="3.23" shape="500.80,490.80 500.00,491.20 499.20,490.80 498.40,489.60"/>
    </edge>
    <edge id=":0_12" function="internal">
        <lane id=":0_12_0" index="0" speed="15.28" length="14.19" shape="489.60,498.40 493.45,497.85 496.20,496.20 497.85,493.45 498.40,489.60"/>
    </edge>
    <edge id=":0_13" function="internal">
        <lane id=":0_13_0" index="0" speed="15.28" length="20.80" shape="489.60,498.40 510.40,498.40"/>
    </edge>
    <edge id=":0_14" function="internal">
        <lane id=":0_14_0" index="0" speed="15.28" length="19.35" shape="489.60,498.40 494.85,499.15 498.60,501.40 500.85,505.15 501.60,510.40"/>
    </edge>
    <edge id=":0_15" function="internal">
        <lane id=":0_15_0" index="0" speed="15.28" length="4.67" shape="489.60,498.40 490.80,499.20 491.20,500.00 490.80,500.80 489.60,501.60"/>
    </edge>
    <edge id=":1_0" function="internal">
        <lane id=":1_0_0" index="0" speed="15.28" length="4.67" shape="0.00,501.60 -1.20,500.80 -1.60,500.00 -1.20,499.20 0.00,498.40"/>
    </edge>
    <edge id=":2_0" function="internal">
        <lane id=":2_0_0" index="0" speed="15.28" length="4.67" shape="1000.00,498.40 1001.20,499.20 1001.60,500.00 1001.20,500.80 1000.00,501.60"/>
    </edge>
    <edge id=":3_0" function="internal">
        <lane id=":3_0_0" index="0" speed="15.28" length="4.67" shape="498.40,0.00 499.20,-1.20 500.00,-1.60 500.80,-1.20 501.60,0.00"/>
    </edge>
    <edge id=":4_0" function="internal">
        <lane id=":4_0_0" index="0" speed="15.28" length="4.67" shape="501.60,1000.00 500.80,1001.20 500.00,1001.60 499.20,1001.20 498.40,1000.00"/>
    </edge>

    <edge id="1i" from="1" to="0" priority="78" length="200.00">
        <lane id="1i_0" index="0" speed="19.44" length="200.00" shape="0.00,495.20 489.60,495.20"/>
        <lane id="1i_1" index="1" speed="19.44" length="200.00" shape="0.00,498.40 489.60,498.40"/>
    </edge>
    <edge id="1o" from="0" to="1" priority="46" length="200.00">
        <lane id="1o_0" index="0" speed="11.11" length="200.00" shape="489.60,504.80 0.00,504.80"/>
        <lane id="1o_1" index="1" speed="11.11" length="200.00" shape="489.60,501.60 0.00,501.60"/>
    </edge>
    <edge id="2i" from="2" to="0" priority="78" length="200.00">
        <lane id="2i_0" index="0" speed="19.44" length="200.00" shape="1000.00,504.80 510.40,504.80"/>
        <lane id="2i_1" index="1" speed="19.44" length="200.00" shape="1000.00,501.60 510.40,501.60"/>
    </edge>
    <edge id="2o" from="0" to="2" priority="46" length="200.00">
        <lane id="2o_0" index="0" speed="11.11" length="200.00" shape="510.40,495.20 1000.00,495.20"/>
        <lane id="2o_1" index="1" speed="11.11" length="200.00" shape="510.40,498.40 1000.00,498.40"/>
    </edge>
    <edge id="3i" from="3" to="0" priority="78" length="200.00">
        <lane id="3i_0" index="0" speed="19.44" length="200.00" shape="504.80,0.00 504.80,489.60"/>
        <lane id="3i_1" index="1" speed="19.44" length="200.00" shape="501.60,0.00 501.60,489.60"/>
    </edge>
    <edge id="3o" from="0" to="3" priority="46" length="200.00">
        <lane id="3o_0" index="0" speed="11.11" length="200.00" shape="495.20,489.60 495.20,0.00"/>
        <lane id="3o_1" index="1" speed="11.11" length="200.00" shape="498.40,489.60 498.40,0.00"/>
    </edge>
    <edge id="4i" from="4" to="0" priority="78" length="200.00">
        <lane id="4i_0" index="0" speed="19.44" length="200.00" shape="495.20,1000.00 495.20,510.40"/>
        <lane id="4i_1" index="1" speed="19.44" length="200.00" shape="498.40,1000.00 498.40,510.40"/>
    </edge>
    <edge id="4o" from="0" to="4" priority="46" length="200.00">
        <lane id="4o_0" index="0" speed="11.11" length="200.00" shape="504.80,510.40 504.80,1000.00"/>
        <lane id="4o_1" index="1" speed="11.11" length="200.00" shape="501.60,510.40 501.60,1000.00"/>
    </edge>

    <junction id="0" type="priority" x="500.00" y="500.00" incLanes="4i_0 4i_1 2i_0 2i_1 3i_0 3i_1 1i_0 1i_1" intLanes=":0_0_0 :0_1_0 :0_16_0 :0_17_0 :0_4_0 :0_5_0 :0_6_0 :0_7_0 :0_8_0 :0_9_0 :0_18_0 :0_19_0 :0_12_0 :0_13_0 :0_14_0 :0_15_0" shape="493.60,510.40 506.40,510.40 510.40,506.40 510.40,493.60 506.40,489.60 493.60,489.60 489.60,493.60 489.60,506.40">
        <request index="0"  response="0000000000000000" foes="1000010000100000" cont="0"/>
        <request index="1"  response="0000000000000000" foes="0111110001100000" cont="0"/>
        <request index="2"  response="0000001100000000" foes="0110001111100000" cont="1"/>
        <request index="3"  response="0100001000010000" foes="0100001000010000" cont="1"/>
        <request index="4"  response="0000001000000000" foes="0100001000001000" cont="0"/>
        <request index="5"  response="0000011000000111" foes="1100011000000111" cont="0"/>
        <request index="6"  response="0011011000000110" foes="0011111000000110" cont="0"/>
        <request index="7"  response="0010000100000100" foes="0010000100000100" cont="0"/>
        <request index="8"  response="0000000000000000" foes="0010000010000100" cont="0"/>
        <request index="9"  response="0000000000000000" foes="0110000001111100" cont="0"/>
        <request index="10" response="0000000000000011" foes="1110000001100011" cont="1"/>
        <request index="11" response="0001000001000010" foes="0001000001000010" cont="1"/>
        <request index="12" response="0000000000000010" foes="0000100001000010" cont="0"/>
        <request index="13" response="0000011100000110" foes="0000011111000110" cont="0"/>
        <request index="14" response="0000011000110110" foes="0000011000111110" cont="0"/>
        <request index="15" response="0000010000100001" foes="0000010000100001" cont="0"/>
    </junction>
    <junction id="1" type="priority" x="0.00" y="500.00" incLanes="1o_0 1o_1" intLanes=":1_0_0" shape="0.00,500.00 0.00,506.40 0.00,500.00">
        <request index="0" response="0" foes="0" cont="0"/>
    </junction>
    <junction id="2" type="priority" x="1000.00" y="500.00" incLanes="2o_0 2o_1" intLanes=":2_0_0" shape="1000.00,500.00 1000.00,493.60 1000.00,500.00">
        <request index="0" response="0" foes="0" cont="0"/>
    </junction>
    <junction id="3" type="priority" x="500.00" y="0.00" incLanes="3o_0 3o_1" intLanes=":3_0_0" shape="500.00,0.00 493.60,0.00 500.00,0.00">
        <request index="0" response="0" foes="0" cont="0"/>
    </junction>
    <junction id="4" type="priority" x="500.00" y="1000.00" incLanes="4o_0 4o_1" intLanes=":4_0_0" shape="500.00,1000.00 506.40,1000.00 500.00,1000.00">
        <request index="0" response="0" foes="0" cont="0"/>
    </junction>

    <junction id=":0_16_0" type="internal" x="499.11" y="505.44" incLanes=":0_2_0 3i_1" intLanes=":0_5_0 :0_6_0 :0_7_0 :0_8_0 :0_9_0 :0_13_0 :0_14_0"/>
    <junction id=":0_17_0" type="internal" x="499.20" y="509.20" incLanes=":0_3_0 1i_1 2i_1 3i_1" intLanes=":0_4_0 :0_9_0 :0_14_0"/>
    <junction id=":0_18_0" type="internal" x="500.89" y="494.56" incLanes=":0_10_0 4i_1" intLanes=":0_0_0 :0_1_0 :0_5_0 :0_6_0 :0_13_0 :0_14_0 :0_15_0"/>
    <junction id=":0_19_0" type="internal" x="500.80" y="490.80" incLanes=":0_11_0 1i_1 2i_1 4i_1" intLanes=":0_1_0 :0_6_0 :0_12_0"/>

    <connection from="1i" to="3o" fromLane="1" toLane="1" via=":0_12_0" dir="r" state="m"/>
    <connection from="1i" to="2o" fromLane="1" toLane="1" via=":0_13_0" dir="s" state="m"/>
    <connection from="1i" to="4o" fromLane="1" toLane="1" via=":0_14_0" dir="l" state="m"/>
    <connection from="1i" to="1o" fromLane="1" toLane="1" via=":0_15_0" dir="t" state="m"/>
    <connection from="1o" to="1i" fromLane="1" toLane="1" via=":1_0_0" dir="t" state="M"/>
    <connection from="2i" to="4o" fromLane="1" toLane="1" via=":0_4_0" dir="r" state="m"/>
    <connection from="2i" to="1o" fromLane="1" toLane="1" via=":0_5_0" dir="s" state="m"/>
    <connection from="2i" to="3o" fromLane="1" toLane="1" via=":0_6_0" dir="l" state="m"/>
    <connection from="2i" to="2o" fromLane="1" toLane="1" via=":0_7_0" dir="t" state="m"/>
    <connection from="2o" to="2i" fromLane="1" toLane="1" via=":2_0_0" dir="t" state="M"/>
    <connection from="3i" to="2o" fromLane="1" toLane="1" via=":0_8_0" dir="r" state="M"/>
    <connection from="3i" to="4o" fromLane="1" toLane="1" via=":0_9_0" dir="s" state="M"/>
    <connection from="3i" to="1o" fromLane="1" toLane="1" via=":0_10_0" dir="l" state="m"/>
    <connection from="3i" to="3o" fromLane="1" toLane="1" via=":0_11_0" dir="t" state="m"/>
    <connection from="3o" to="3i" fromLane="1" toLane="1" via=":3_0_0" dir="t" state="M"/>
    <connection from="4i" to="1o" fromLane="1" toLane="1" via=":0_0_0" dir="r" state="M"/>
    <connection from="4i" to="3o" fromLane="1" toLane="1" via=":0_1_0" dir="s" state="M"/>
    <connection from="4i" to="2o" fromLane="1" toLane="1" via=":0_2_0" dir="l" state="m"/>
    <connection from="4i" to="4o" fromLane="1" toLane="1" via=":0_3_0" dir="t" state="m"/>
    <connection from="4o" to="4i" fromLane="1" toLane="1" via=":4_0_0" dir="t" state="M"/>

    <connection from=":0_0" to="1o" fromLane="0" toLane="1" dir="r" state="M"/>
    <connection from=":0_1" to="3o" fromLane="0" toLane="1" dir="s" state="M"/>
    <connection from=":0_2" to="2o" fromLane="0" toLane="1" via=":0_16_0" dir="l" state="m"/>
    <connection from=":0_16" to="2o" fromLane="0" toLane="1" dir="l" state="M"/>
    <connection from=":0_3" to="4o" fromLane="0" toLane="1" via=":0_17_0" dir="t" state="m"/>
    <connection from=":0_17" to="4o" fromLane="0" toLane="1" dir="t" state="M"/>
    <connection from=":0_4" to="4o" fromLane="0" toLane="1" dir="r" state="M"/>
    <connection from=":0_5" to="1o" fromLane="0" toLane="1" dir="s" state="M"/>
    <connection from=":0_6" to="3o" fromLane="0" toLane="1" dir="l" state="M"/>
    <connection from=":0_7" to="2o" fromLane="0" toLane="1" dir="t" state="M"/>
    <connection from=":0_8" to="2o" fromLane="0" toLane="1" dir="r" state="M"/>
    <connection from=":0_9" to="4o" fromLane="0" toLane="1" dir="s" state="M"/>
    <connection from=":0_10" to="1o" fromLane="0" toLane="1" via=":0_18_0" dir="l" state="m"/>
    <connection from=":0_18" to="1o" fromLane="0" toLane="1" dir="l" state="M"/>
    <connection from=":0_11" to="3o" fromLane="0" toLane="1" via=":0_19_0" dir="t" state="m"/>
    <connection from=":0_19" to="3o" fromLane="0" toLane="1" dir="t" state="M"/>
    <connection from=":0_12" to="3o" fromLane="0" toLane="1" dir="r" state="M"/>
    <connection from=":0_13" to="2o" fromLane="0" toLane="1" dir="s" state="M"/>
    <connection from=":0_14" to="4o" fromLane="0" toLane="1" dir="l" state="M"/>
    <connection from=":0_15" to="1o" fromLane="0" toLane="1" dir="t" state="M"/>
    <connection from=":1_0" to="1i" fromLane="0" toLane="1" dir="t" state="M"/>
    <connection from=":2_0" to="2i" fromLane="0" toLane="1" dir="t" state="M"/>
    <connection from=":3_0" to="3i" fromLane="0" toLane="1" dir="t" state="M"/>
    <connection from=":4_0" to="4i" fromLane="0" toLane="1" dir="t" state="M"/>

</net>
